
data_pos
_symmetry_cell_setting           triclinic
_symmetry_space_group_name_H-M   'P 1'
_symmetry_Int_Tables_number      1
loop_
_symmetry_equiv_pos_site_id
_symmetry_equiv_pos_as_xyz
1 x,y,z
_cell_length_a      6.216800942538138              
_cell_length_b      7.808147184012485             
_cell_length_c      9.886852305934946             
_cell_angle_alpha   97.34921930173084             
_cell_angle_beta    97.82341902586873             
_cell_angle_gamma   90.39857107121242            
loop_
_atom_site_type_symbol
_atom_site_fract_x
_atom_site_fract_y
_atom_site_fract_z
N             0.2543470513       -0.1591144763       -0.0401122963
C             0.2477791573       -0.0959852992        0.0726374156
N            -0.0923849710       -0.0727774064        0.3273482188
C             0.0567563112       -0.0475576951        0.2720901733
C             0.2438827659       -0.0182103611        0.2098817163
C             0.4193309154        0.0806721447        0.2795366197
H             0.5571856042        0.0935383332        0.2238179867
C             0.4319275941        0.1678169856        0.4149448325
H             0.2948629344        0.1575768155        0.4718346699
C             0.6140864365        0.2632456881        0.4723610635
H             0.7484150940        0.2614213533        0.4116471697
C             0.6499072381        0.3667946295        0.6052259090
C             0.4893432891        0.3894688187        0.6935161908
H             0.3327726413        0.3221182240        0.6651630885
C             0.5297327799        0.4940626381        0.8188349626
H             0.4066427721        0.5143252217        0.8867252603
C             0.7331440170        0.5748592044        0.8568682782
F             0.7726626168        0.6766222911        0.9801250843
C             0.8973095276        0.5555627101        0.7742436253
H             1.0525215183        0.6229701538        0.8089411197
C             0.8532515025        0.4513722388        0.6486147167
H             0.9796634917        0.4312069522        0.5826045604
N             0.7456566471        1.1591182507        1.0401175536
C             0.7522191195        1.0959843735        0.9273670783
N             1.0923897332        1.0727777647        0.6726534029
C             0.9432309189        1.0475564484        0.7279162147
C             0.7561089591        1.0182071231        0.7901194365
C             0.5806701278        0.9193318843        0.7204708562
H             0.4428078910        0.9064607962        0.7761835614
C             0.5680787702        0.8321863565        0.5850548352
H             0.7051405051        0.8424263549        0.5281698725
C             0.3859176243        0.7367503249        0.5276328550
H             0.2515881354        0.7385801585        0.5883536326
C             0.3500906934        0.6332106211        0.3947835035
C             0.5106796926        0.6105377753        0.3064842375
H             0.6672230520        0.6778808302        0.3348374260
C             0.4702642351        0.5059347222        0.1811636070
H             0.5933642353        0.4856774727        0.1132761637
C             0.2668583215        0.4251446218        0.1431362706
F             0.2273433803        0.3233783430        0.0198741469
C             0.1027097810        0.4444474944        0.2257635372
H            -0.0525249475        0.3770279878        0.1910580847
C             0.1467491137        0.5486216915        0.3513775962
H             0.0203397235        0.5687958394        0.4173975622

