
data_Monomer
_symmetry_cell_setting           triclinic
_symmetry_space_group_name_H-M   'P 1'
_symmetry_Int_Tables_number      1
loop_
_symmetry_equiv_pos_site_id
_symmetry_equiv_pos_as_xyz
1 x,y,z
_cell_length_a      3.73263561895112              
_cell_length_b      9.283011766707917             
_cell_length_c      28.664817297598596             
_cell_angle_alpha   90            
_cell_angle_beta    90             
_cell_angle_gamma   90.0            
loop_
_atom_site_type_symbol
_atom_site_fract_x
_atom_site_fract_y
_atom_site_fract_z
O             0.2196748787        0.3394122475        0.5169751028
O            -0.0896037429        0.5094723408        0.5563452350
C             0.3553227795        0.5171325045        0.6421217611
C             0.5027232951        0.5725154833        0.6819247194
C             0.5770830857        0.4831273010        0.7207209796
C             0.5016251196        0.3390286282        0.7186664145
C             0.0348835483       -0.0825041111        0.6361257509
C            -0.1228134699       -0.1440593477        0.5980929995
C            -0.2062258937       -0.0575877120        0.5588980190
C            -0.1272766840        0.0866612144        0.5581492423
C             0.1284168052        0.3033275337        0.5978840416
C             0.2758617041        0.1300779665        0.6757416463
C             0.2709409788        0.3678349213        0.6384527036
C             0.3484421627        0.2772576581        0.6780114016
C             0.1194840992        0.0670036098        0.6367965220
C             0.0432131563        0.1547347532        0.5965719185
C             0.0748342817        0.3928648664        0.5555679784
H             0.1600989862        0.4035594742        0.4887131501
H             0.3023331401        0.5877388103        0.6128746776
H             0.5664342347        0.6868933331        0.6835126971
H             0.6958609865        0.5291160455        0.7518157108
H             0.5580918496        0.2683689437        0.7480378496
H             0.0988392291       -0.1466425407        0.6667680767
H            -0.1858754397       -0.2584077206        0.5977428977
H            -0.3369098526       -0.1064180944        0.5290897157
H            -0.1991192293        0.1501599695        0.5278880821
H             0.3382647894        0.0623471890        0.7055970480
O             0.2804694695        0.8394071191        0.9830362476
O             0.5897435184        1.0094731762        0.9436652308
C             0.1447803734        1.0171295846        0.8578912951
C            -0.0026396370        1.0725172491        0.8180891459
C            -0.0770110719        0.9831286861        0.7792931372
C            -0.0015499904        0.8390328754        0.7813459417
C             0.4652087356        0.4174998960        0.8638833763
C             0.6229135154        0.3559414849        0.9019155928
C             0.7063351555        0.4424134253        0.9411098186
C             0.6273963769        0.5866583705        0.9418595897
C             0.3717005742        0.8033240309        0.9021270859
C             0.2242158303        0.6300812687        0.8242693250
C             0.2291472032        0.8678332046        0.8615597997
C             0.1516323246        0.7772547719        0.8220011568
C             0.3806066991        0.5670020876        0.8632145738
C             0.4568895076        0.6547357262        0.9034381953
C             0.4253024475        0.8928584004        0.9444429015
H             0.3400554552        0.9035520083        1.0112978020
H             0.1977637079        1.0877348872        0.8871388382
H            -0.0663444614        1.1868949661        0.8165021770
H            -0.1957894290        1.0291210243        0.7481982608
H            -0.0580367403        0.7683719166        0.7519748197
H             0.4012412626        0.3533632445        0.8332417400
H             0.6859780283        0.2415957778        0.9022640498
H             0.8370269783        0.3935810484        0.9709170062
H             0.6992416548        0.6501558055        0.9721210486
H             0.1617969728        0.5623495588        0.7944147933
O             0.7804684709        0.6606358011        0.4830385944
O             1.0897319868        0.4905767032        0.4436671161
C             0.6447877392        0.4829064113        0.3578943825
C             0.4973718231        0.4275175857        0.3180923863
C             0.4230026626        0.5169048480        0.2792952830
C             0.4984647400        0.6610017135        0.2813474634
C             0.9652168088        1.0825426651        0.3638828777
C             1.1229003304        1.1441048002        0.4019154288
C             1.2063207907        1.0576387950        0.4411106314
C             1.1273878435        0.9133881138        0.4418608725
C             0.8717030574        0.6967198904        0.4021291201
C             0.7242279062        0.8699574572        0.3242702351
C             0.7291578712        0.6322047357        0.3615623666
C             0.6516440360        0.7227795590        0.3220024843
C             0.8806057032        0.9330383328        0.3632148574
C             0.9568834126        0.8453115011        0.4034400224
C             0.9253096727        0.6071816531        0.4444459035
H             0.8400532623        0.5964912170        0.5113015105
H             0.6977702124        0.4123028241        0.3871427133
H             0.4336646200        0.3131388074        0.3165056048
H             0.3042252567        0.4709102056        0.2482007171
H             0.4419791104        0.7316621776        0.2519756153
H             0.9012467686        1.1466762117        0.3332406042
H             1.1859681260        1.2584519701        0.4022632739
H             1.3370049329        1.1064717558        0.4709176572
H             1.1992226836        0.8498959788        0.4721232496
H             0.6618158188        0.9376860926        0.2944146147
O             0.7196828090        0.1606383258        0.0169726965
O             0.4104111510       -0.0094270120        0.0563437942
C             0.8553410662       -0.0170872004        0.1421180027
C             1.0027476428       -0.0724740272        0.1819209534
C             1.0771008725        0.0169088824        0.2207180930
C             1.0016300774        0.1610087463        0.2186661954
C             0.5349034098        0.5825442974        0.1361275038
C             0.3772253080        0.6441047460        0.0980941995
C             0.2938161968        0.5576350852        0.0588984876
C             0.3727476484        0.4133899428        0.0581497261
C             0.6284318879        0.1967193367        0.0978829758
C             0.7758730299        0.3699619877        0.1757421966
C             0.7709587663        0.1322124014        0.1384500488
C             0.8484583931        0.2227824121        0.1780108956
C             0.6195036250        0.4330399519        0.1367971548
C             0.5432335330        0.3453108854        0.0965713443
C             0.5748439612        0.1071855658        0.0555659684
H             0.6601047487        0.0964926114       -0.0112888600
H             0.8023647710       -0.0876887485        0.1128700475
H             1.0664582993       -0.1868514496        0.1835070944
H             1.1958749837       -0.0290817461        0.2518131162
H             1.0581025176        0.2316644142        0.2480382752
H             0.5988631508        0.6466805367        0.1667701452
H             0.3141685706        0.7584518033        0.0977451908
H             0.1631378550        0.6064699139        0.0290905115
H             0.3009107420        0.3498930397        0.0278871191
H             0.8382700770        0.4376906282        0.2055982458

