data_Unitcell

_symmetry_space_group_name_H-M "P1"
_symmetry_Int_Tables_number  1
_symmetry_cell_setting TRICLINIC
_cell_length_a 7.465271
_cell_length_b 9.283012
_cell_length_c 28.664817
_cell_angle_alpha 89.999811
_cell_angle_beta 89.437040
_cell_angle_gamma 90.000761

loop_
	_symmetry_equiv_pos_site_id
	_symmetry_equiv_pos_as_xyz
	X,Y,Z

loop_
	_atom_site_label
	_atom_site_fract_x
	_atom_site_fract_y
	_atom_site_fract_z
C             0.8328848558        0.8885482861        0.9505189012
C             0.7000482561        1.0126797875        0.8616321961
C             0.6139816576        0.0553969978        0.8210685668
C             0.6323036562        0.9740158290        0.7806138121
C             0.7425494236        0.8539167370        0.7804545615
C             0.8824025940        0.4467562758        0.8602780650
C             0.8599501759        0.3668071578        0.9009021578
C             0.8642312157        0.4367860205        0.9436689672
C             0.1530712154        1.0197967093        0.9322989057
C             0.2458394377        0.7674489683        0.9008012897
C             0.2566185413        0.6804414450        0.8608047583
C             0.1725580498        0.8838826519        0.8105813029
C             0.1515790911        0.9721111766        0.8499003536
C             0.1569346653        0.7251410054        0.8177997567
C             0.1223470570        0.8974024518        0.8976922268
C             0.3249587985        0.7197178117        0.9418927954
C             0.4227060000        0.5009218179        0.9036001891
C             0.9028053827        0.6682871746        0.9053935528
C             0.9074923280        0.5948736983        0.8625332179
C             0.8277180757        0.8105678956        0.8208494555
C             0.8047475463        0.8880302521        0.8624361902
C             0.9480429569        0.6813939359        0.8199774352
C             0.9124054647        0.8354686130        0.9042212089
C             0.4105276001        0.5864849091        0.9433830640
C             0.8835480027        0.5861275007        0.9459786620
C             0.1593404966        0.1213790342        0.8438484226
C             0.1817833085        0.1805894364        0.7995148466
C             0.1948236135        0.0924908867        0.7603357042
C             0.1915456280        0.9436995296        0.7662686430
C             0.3473589445        0.5492794713        0.8622904172
H             0.9209082506        0.6184100190        0.7884996170
H             0.5594297358        1.0021760676        0.7494368542
H             0.7632532293        0.7910569961        0.7489078162
H             0.8831413786        0.3936491573        0.8263786039
H             0.8439061042        0.2508482807        0.8993687161
H             0.8522491155        0.3741295183        0.9755725872
H             0.8857645380        0.6370852004        0.9800005238
H             0.3206039434        0.7851700160        0.9732757497
H             0.3329610246        0.1183817060        0.9652530251
H             0.1455836959        0.1946974989        0.8732019716
H             0.1877537857        0.2971155732        0.7958291543
H             0.2063565259        0.1392862384        0.7256256998
H             0.2011954842        0.8721637351        0.7361788706
H             0.3546525674        0.4829296717        0.8309686763
H             0.4917299166        0.3978088935        0.9046920556
H             0.4665233881        0.5492214113        0.9760299331
H             0.5294372050        0.1507619366        0.8216081151
H             0.6813833428        0.0760035005        0.8929357395
H             0.2148418798        0.6688679988        0.7877147030
H             0.8841060786        0.9384537118        0.0125991857
O             0.3247716098        1.0340927818        0.9447182380
O             1.0379764356        0.1058480482        0.9442073819
O             0.9344953858        0.8685544499        0.9881024976
O             0.6816293981        0.9395442438        0.9538053195
C             0.3469840348       -0.0197507067        0.0677115050
C             0.3407159061        0.8786620184        0.1561623780
C             0.3182731616        0.8194525491        0.2004961069
C             0.3052324173        0.9075501513        0.2396750784
C             0.3085111099        0.0563419752        0.2337424263
C             0.1526965203        0.4507625740        0.1377212603
C             0.0773510895        0.4991208723        0.0964111920
C             0.0895272396        0.4135575867        0.0566285271
C             0.6671742855        0.1114979707        0.0494915952
C             0.5972496819        0.3317541484        0.0946179811
C             0.5925647302        0.4051652411        0.1374777040
C             0.6723388449        0.1894732491        0.1791607667
C             0.6953084002        0.1120125817        0.1375752902
C             0.5520146554        0.3186476086        0.1800341003
C             0.5876517013        0.1645728740        0.0957896045
C             0.6165093026        0.4139154865        0.0540323289
C             0.6401077561        0.6332348264        0.0991094459
C             0.2542174685        0.2325928845        0.0992101448
C             0.2434385259        0.3196008069        0.1392065424
C             0.3274982800        0.1161601000        0.1894298477
C             0.3484775757        0.0279307379        0.1501110294
C             0.3431229065        0.2749011669        0.1822113794
C             0.3777094079        0.1026393438        0.1023189622
C             0.6358235826        0.5632593744        0.0563432042
C             0.1750990306        0.2803253094        0.0581182956
C             0.8000086389       -0.0126391874        0.1383777345
C             0.8860744277        0.9446450588        0.1789430292
C             0.8677530484        0.0260230508        0.2193960056
C             0.7575079282        0.1461246726        0.2195571877
C             0.6176531891        0.5532859808        0.1397340923
H             0.2852145055        0.3311737206        0.2122966855
H             0.2936996350        0.8607548246        0.2743849487
H             0.2988612434        0.1278769416        0.2638320079
H             0.1454039956        0.5171121053        0.1690429875
H             0.0083251756        0.6022330426        0.0953197409
H             0.0335323117        0.4508220971        0.0239814824
H             0.1794522675        0.2148736863        0.0267354109
H             0.6142911260        0.3629588644        0.0200110569
H             0.6159503557        0.0615910886        0.9874117843
H             0.8186728551        0.9240395840        0.1070750901
H            -0.0293817747        0.8492789106        0.1784021183
H            -0.0593726018       -0.0021363061        0.2505737013
H             0.7368051568        0.2089826138        0.2511030344
H             0.6169165747        0.6063931248        0.1736331365
H             0.6561497379        0.7491958600        0.1006431127
H             0.6478064485        0.6259152664        0.0244386259
H             0.3123025464        0.7029264711        0.2041813981
H             0.3544725504        0.8053449387        0.1268087482
H             0.5791484680        0.3816309603        0.2115118934
H             0.1670956373        0.8816615689        0.0347577756
O             0.4620814070        0.8941938257        0.0558036376
O             0.1752851965       -0.0340499139        0.0552926952
O             0.8184253230        0.0604985635        0.0462057731
O             0.5655586023        0.1314886466        0.0119085370
C             0.6246989164        0.6663993342        0.4540377019
C             0.4606991590        0.5123404956        0.3726496106
C             0.3810597129        0.4470920942        0.3343457627
C             0.4118366267        0.5006536786        0.2897191876
C             0.5197873524        0.6212647148        0.2834137671
C             0.6435982377        0.0693527601        0.3478234899
C             0.6189357375        0.1609378220        0.3857878075
C             0.6184803917        0.1039874130        0.4305801801
C             0.9226470911        0.5210972145        0.4343050743
C             1.0188613492        0.7653130004        0.3969045527
C             1.0223146828        0.8448134158        0.3552561533
C             0.9470279328        0.6303348746        0.3096340980
C             0.9249783067        0.5498008236        0.3506035182
C             0.9223294376        0.7886421378        0.3136838991
C             0.8971535393        0.6343627842        0.3967787762
C             1.1044137767        0.8205899522        0.4361206419
C             0.1927726930        0.0328924697        0.3927355294
C             0.6701986056        0.8641689488        0.3997965484
C             0.6703377354        0.9228131130        0.3546654990
C             0.5970901592        0.6889354683        0.3214765559
C             0.5710245498        0.6320161224        0.3664025501
C             0.7107810133        0.8221091027        0.3153220829
C             0.6843956813        0.6987044406        0.4041312176
C             0.1902311340        0.9537073727        0.4339483967
C             0.6435129372        0.9569136784        0.4376205353
C             0.9345426411        0.3997597855        0.3470570196
C             0.9603505294        0.3337168154        0.3038449518
C             0.9784404993        0.4148934616        0.2633050945
C             0.9729827089        0.5642482179        0.2665698184
C             1.1105842323       -0.0231139194        0.3534100402
H             0.6783549133        0.8722458520        0.2818226222
H             0.3484779738        0.4500910578        0.2600400131
H             0.5455870946        0.6642942196        0.2487173914
H             0.6423150233        0.1117157461        0.3124284147
H             0.5998491548        0.2755018930        0.3802983755
H             0.5950083970        0.1726660110        0.4606745175
H             0.6409306341        0.9172726996        0.4732321341
H             1.1034174781        0.7608141307        0.4685878558
H             0.0646056544        0.4452362928        0.4836322312
H             0.9199341727        0.3306696434        0.3773672455
H             0.9645337971        0.2167823557        0.3024047522
H             0.9936486374        0.3623480163        0.2295764160
H             0.9849436362        0.6311881823        0.2354469888
H             1.1125694722        0.0371618683        0.3208613684
H             0.2605697321        0.1364103854        0.3911363346
H             0.2570733317       -0.0044226636        0.4646101744
H             0.2949012591        0.3539780443        0.3394411351
H             0.4367916648        0.4698798455        0.4073763590
H             0.9755627129        0.8403443522        0.2823019745
H             0.7180641003        0.6545341252        0.5166914285
O             0.0757941419        0.5154954733        0.4561984789
O             0.8004097813        0.4316786550        0.4404080392
O             0.7532393885        0.6946360703        0.4841634385
O             0.4730123800        0.6279737512        0.4660239840
C             0.5774085380        0.4789465189        0.5657068227
C             0.5655118853        0.6002818099        0.6529549661
C             0.5397047276        0.6663271970        0.6961668354
C             0.5216138447        0.5851475029        0.7367068134
C             0.5270727738        0.4357951819        0.7334418686
C             0.3894723273        1.0231564168        0.6466013536
C             0.3072827414        0.9671497676        0.6072761847
C             0.3098258599        0.0463357449        0.5660630219
C             0.8753535721        0.3336477038        0.5459743066
C             0.8298571419        0.1358714906        0.6002151876
C             0.8297172926        0.0772283037        0.6453463454
C            -0.0970348774        0.3111097086        0.6785349082
C            -0.0709687168        0.3680269192        0.6336087324
C             0.7892760740        0.1779345388        0.6846896520
C             0.8156608392        0.3013372065        0.5958803011
C             0.8565422710        0.0431280510        0.5623911259
C            -0.1188806941        0.8391053426        0.6142237587
C             0.4811946014        0.2347294981        0.6031068359
C             0.4777406111        0.1552287437        0.6447555380
C             0.5530271798        0.3697083993        0.6903776643
C             0.5750780171        0.4502433930        0.6494078262
C             0.5777250680        0.2114011666        0.6863277870
C             0.6029009345        0.3656803047        0.6032327962
C            -0.1184241936        0.8960553275        0.5694316779
C             0.3956411575        0.1794525558        0.5638911539
C             0.0393558616        0.4877035464        0.6273620411
C             0.1189960317        0.5529506930        0.6656658279
C             0.0882187584        0.4993900216        0.7102923493
C            -0.0197311499        0.3787781373        0.7165979268
C            -0.1435415017        0.9306890039        0.6521880739
H             0.5244930955        0.1596974986        0.7177097276
H             0.5064061216        0.6376946774        0.7704353778
H             0.5151116074        0.3688538634        0.7645650876
H             0.3874873122        0.9628805125        0.6791502882
H             0.2394871980        0.8636318915        0.6088752362
H             0.2429830058        1.0044652092        0.5354015142
H             0.3966380575        0.2392288521        0.5314237356
H             0.8591246126        0.0827693744        0.5267795014
H             0.7819908231        0.3455089522        0.4833203806
H             0.0632633235        0.5301631206        0.5926353397
H             0.2051538282        0.6460653953        0.6605704492
H             0.1515775104        0.5499519155        0.7399713700
H            -0.0455315135        0.3357491947        0.7512944434
H            -0.1422597448        0.8883281099        0.6875831433
H            -0.0997940761        0.7245416732        0.6197134925
H            -0.0949537250        0.8273773727        0.5393377061
H             0.5355207473        0.7832602247        0.6976071188
H             0.5801209707        0.6693734280        0.6226446635
H            -0.1782990780        0.1277967724        0.7181890933
H             0.4354500796        0.5548067538        0.5163796181
O             0.6996462036        0.5683647070        0.5596036562
O             0.4242611526        0.4845476573        0.5438131641
O             0.0270436516        0.3720673208        0.5339876192
O             0.7468163085        0.3054058136        0.5158480678
